/*--------------------------------*- C++ -*----------------------------------*\
| =========                 |                                                 |
| \\      /  F ield         | OpenFOAM: The Open Source CFD Toolbox           |
|  \\    /   O peration     | Version:  2.1.0                                 |
|   \\  /    A nd           | Web:      www.OpenFOAM.org                      |
|    \\/     M anipulation  |                                                 |
\*---------------------------------------------------------------------------*/
FoamFile
{
    version     2.0;
    format      ascii;
    class       dictionary;
    object      blockMeshDict;
}
// * * * * * * * * * * * * * * * * * * * * * * * * * * * * * * * * * * * * * //

convertToMeters 1;

vertices
(
 (0   0   0 ) // 0
 (0   0   3 ) // 1

 (11  0   0)  // 2
 (11  0   3)  // 3

 (0   5   0)  // 4
 (0   5   3)  // 5

 (11  5   0)  // 6
 (11  5   3)  // 7

);

blocks
(
 hex ( 0  2  6  4  1  3  7  5) (55 25 15) simpleGrading (1 1 1) //block1 

);

edges
(
);

boundary
(
    xmin
    {
        type patch;
        faces
        (
            (1 0 4 5)
        );
    }
    
    xmax
    {
        type patch;
        faces
        (
            (2 3 7 6)
        );
    }
    
    atmosphere
    {
        type patch;
        faces
        (
            (1 5 7 3)
        );
    }
    
    wall_fond
    {
        type wall;
        faces
        (
            (0 4 6 2)
        );
    }
    
    wall_ymax
    {
      type wall;
        faces
        (
            (4 5 7 6)
        );
    }
    
    wall_ymin
    {
      type wall;
        faces
        (
            (0 1 3 2)
        );
    }

);
    
mergePatchPairs
(
);
