/*--------------------------------*- C++ -*----------------------------------*\
| =========                 |                                                 |
| \\      /  F ield         | OpenFOAM: The Open Source CFD Toolbox           |
|  \\    /   O peration     | Version:  2.1.0                                 |
|   \\  /    A nd           | Web:      www.OpenFOAM.org                      |
|    \\/     M anipulation  |                                                 |
\*---------------------------------------------------------------------------*/
FoamFile
{
    version     2.0;
    format      ascii;
    class       dictionary;
    object      blockMeshDict;
}
// * * * * * * * * * * * * * * * * * * * * * * * * * * * * * * * * * * * * * //

convertToMeters 1;

xMin   0.0; 
xDev   5.0; 
xMax  11.0;

yA  0.0; 
yB  5.0; 

zMin     0.0;  
zPlaceHolder  0.5; 
zNVaval   0.9; 
zNVamont  1.3;
zMax     3.0;

cellsize 0.2;

nbDirX             #calc "floor((($xMax)-($xMin))/$cellsize)";
nbDirXAmont        #calc "floor((($xDev)-($xMin))/$cellsize)";
nbDirXAval         #calc "floor((($xMax)-($xDev))/$cellsize)";
nbDirY             #calc "floor((($yB)-($yA))/$cellsize)";
nbDirZ             #calc "floor((($zMax)-($zMin))/$cellsize)";
nbDirZBas1         #calc "floor((($zPlaceHolder)-($zMin))/$cellsize)";
nbDirZBas2         #calc "floor((($zNVaval)-($zPlaceHolder))/$cellsize)";
nbDirZAtmosphere1  #calc "floor((($zNVamont)-($zNVaval))/$cellsize)";
nbDirZAtmosphere2  #calc "floor((($zMax)-($zNVamont))/$cellsize)";

vertices
(
 ($xMin  $yA   $zMin    ) // 0
 ($xMin  $yA   $zMax    ) // 1

 ($xMax  $yA   $zMin    ) // 2
 ($xMax  $yA   $zMax    ) // 3

 ($xMin  $yB   $zMin    ) // 4
 ($xMin  $yB   $zMax    ) // 5

 ($xMax  $yB   $zMin    ) // 6
 ($xMax  $yB   $zMax    ) // 7

);

blocks
(
 hex ( 0  2  6  4  1  3  7  5) ($nbDirX $nbDirY $nbDirZ)   simpleGrading (1 1 1) //block1 

);

edges
(
);

boundary
(
    xmin
    {
        type patch;
        faces
        (
            (1 0 4 5)
        );
    }
    
    xmax
    {
        type patch;
        faces
        (
            (2 3 7 6)
        );
    }
    
    atmosphere
    {
        type patch;
        faces
        (
            (1 5 7 3)
        );
    }
    
    wall_fond
    {
        type wall;
        faces
        (
            (0 4 6 2)
        );
    }
    
    wall_ymax
    {
      type wall;
        faces
        (
            (4 5 7 6)
        );
    }
    
    wall_ymin
    {
      type wall;
        faces
        (
            (0 1 3 2)
        );
    }

);
    
mergePatchPairs
(
);
